 &time_control
 start_year                          = YYYY, YYYY, YYYY,                       
 start_month                         =   MM, MM, MM,
 start_day                           =   DD, DD, DD,
 start_hour                          =   00, 00, 00,
 start_minute                        =   00,    00,    00, 
 start_second                        =   00,    00,    00, 
 end_year                            = YYYY, YYYY, YYYY,                       
 end_month                           =   MM, MM, MM,
 end_day                             =   DD, DD, DD,
 end_hour                            =   00, 00, 00,
 end_minute                          =   00,    00,    00, 
 end_second                          =   00,    00,    00, 
 interval_seconds                    = 21600
 input_from_file                     = .true., .true., .true.,
 history_interval                    =   60,    60,    60,   
 frames_per_outfile                  =    1,     1,     1, 
 restart                             = .false.,
 restart_interval                    =  720,
 io_form_history                     = 2
 io_form_restart                     = 2
 io_form_input                       = 2
 io_form_boundary                    = 2
 debug_level                         = 0
 /

 &lis
   lis_landcover_type = 3,
   lis_filename = "200607140000.d01.nc",
 /

 &domains
 time_step                           = 30,
 time_step_fract_num                 = 0,
 time_step_fract_den                 = 1,
 max_dom                             = 3,
 s_we                                =      1,     1,     1,
 e_we                                =    ???,   ???,   ???,
 s_sn                                =      1,     1,     1,
 e_sn                                =    ???,   ???,   ???,
 s_vert                              =      1,     1,     1,
 e_vert                              =     61,    61,    61,
 eta_levels                          = 1.000, 0.995, 0.990, 0.985, 0.980,
                                       0.975, 0.970, 0.960, 0.950, 0.940,
                                       0.930, 0.920, 0.910, 0.900, 0.890,
                                       0.880, 0.870, 0.860, 0.850, 0.840,
                                       0.830, 0.820, 0.810, 0.800, 0.780,
                                       0.760, 0.740, 0.720, 0.700, 0.680,
                                       0.660, 0.640, 0.620, 0.600, 0.580,
                                       0.560, 0.540, 0.520, 0.500, 0.475,
                                       0.450, 0.425, 0.400, 0.375, 0.350,
                                       0.325, 0.300, 0.280, 0.260, 0.240,
                                       0.220, 0.200, 0.180, 0.160, 0.140,
                                       0.120, 0.100, 0.075, 0.050, 0.025,
                                       0.000,
 num_metgrid_levels                  = 40,
 use_levels_below_ground             = .false.,
 p_top_requested                     = 5000,
 dx                                  = 18000, 6000, 2000,
 dy                                  = 18000, 6000, 2000,
 grid_id                             =    1,     2,     3,
 parent_id                           =    0,     1,     2,
 i_parent_start                      =    1,    ???,   ???,
 j_parent_start                      =    1,    ???,   ???,
 parent_grid_ratio                   =    1,     3,     3,
 parent_time_step_ratio              =    1,     3,     3,
 feedback                            = 1,
 smooth_option                       = 2,
 /

 &physics
 mp_physics                          = 7,     7,     7,
 gsfcgce_hail                        = 0,
 gsfcgce_2ice                        = 0,
 mp_zero_out                         = 2,
 ra_lw_physics                       = 5,     5,     5,
 ra_sw_physics                       = 5,     5,     5,
 radt                                = 18,     6,     2,
 sf_sfclay_physics                   = 2,     2,     2,
 sf_surface_physics                  = 2,     2,     2,
 bl_pbl_physics                      = 2,     2,     2,
 bldt                                = 0,     0,     0,
 cu_physics                          = 3,     0,     0,
 cudt                                = 0,     0,     0,
 isfflx                              = 1,
 ifsnow                              = 0,
 icloud                              = 1,
 surface_input_source                = 1,
 num_soil_layers                     = 4,
 maxiens                             = 1,
 maxens                              = 3,
 maxens2                             = 3,
 maxens3                             = 16,
 ensdim                              = 144,
 /

 &fdda
 grid_fdda                           = 0,     0,     0,
 gfdda_inname                        = "wrffdda_d<domain>",
 gfdda_end_h                         = 0,     0,     0,
 gfdda_interval_m                    = 0,     0,     0,
 fgdt                                = 0,     0,     0,
 if_no_pbl_nudging_uv                = 0,     0,     0,
 if_no_pbl_nudging_t                 = 0,     0,     0,
 if_no_pbl_nudging_q                 = 0,     0,     0,
 if_zfac_uv                          = 0,     0,     0,
  k_zfac_uv                          = 10,   10,     1,
 if_zfac_t                           = 0,     0,     0,
  k_zfac_t                           = 10,   10,     1,
 if_zfac_q                           = 0,     0,     0,
  k_zfac_q                           = 10,   10,     1,
 guv                                 = 0.0003,     0.0003,     0.0003,
 gt                                  = 0.000,     0.000,     0.000,
 gq                                  = 0.000,     0.000,     0.000,
 if_ramping                          = 0,
 dtramp_min                          = 60.0,
 io_form_gfdda                       = 2,
 /

 &dynamics
 w_damping                           = 0,
 diff_opt                            = 1,      1,      1,
 km_opt                              = 4,      4,      4,
 diff_6th_opt                        = 0,      0,      0,
 diff_6th_factor                     = 0.12,   0.12,   0.12,
 base_temp                           = 290.
 damp_opt                            = 0,
 zdamp                               = 5000.,  5000.,  5000.,
 dampcoef                            = 0.2,    0.2,    0.2
 khdif                               = 0,      0,      0,
 kvdif                               = 0,      0,      0,
 non_hydrostatic                     = .true., .true., .true.,
 moist_adv_opt                       = 1,      1,      1,
 scalar_adv_opt                      = 1,      1,      1,
 /

 &bdy_control
 spec_bdy_width                      = 5,
 spec_zone                           = 1,
 relax_zone                          = 4,
 specified                           = .true., .false.,.false.,
 nested                              = .false., .true., .true.,
 /

 &grib2
 /

 &namelist_quilt
 nio_tasks_per_group = 0,
 nio_groups = 1,
 /
